Version 4
SHEET 1 880 680
WIRE 288 -96 288 -128
WIRE 32 64 0 64
WIRE 160 64 112 64
WIRE 288 64 288 -16
WIRE 288 64 240 64
WIRE 288 112 288 64
WIRE 288 224 288 176
FLAG 0 64 0
FLAG 288 224 0
FLAG 288 -128 0
SYMBOL voltage 128 64 R90
WINDOW 0 -32 56 VBottom 2
WINDOW 3 32 56 VTop 2
WINDOW 123 0 0 Left 0
WINDOW 39 0 0 Left 0
SYMATTR InstName V1
SYMATTR Value 12
SYMBOL res 256 48 R90
WINDOW 0 0 56 VBottom 2
WINDOW 3 32 56 VTop 2
SYMATTR InstName R1
SYMATTR Value 1k
SYMBOL res 272 -112 R0
SYMATTR InstName Robc
SYMATTR Value {R}
SYMBOL zener 304 176 R180
WINDOW 0 24 64 Left 2
WINDOW 3 24 0 Left 2
SYMATTR InstName D1
SYMATTR Value BZX84C6V2LT116
TEXT -72 200 Left 2 !.op 1\n.step param R 1k 40k 1k
