Version 4
SHEET 1 880 680
WIRE 448 -32 448 -80
WIRE 448 96 448 48
WIRE 80 144 48 144
WIRE 192 144 160 144
WIRE 256 144 192 144
WIRE 384 144 336 144
WIRE 192 192 192 144
WIRE 448 240 448 192
WIRE 192 320 192 272
WIRE 448 352 448 320
WIRE 448 464 448 432
FLAG 192 320 0
FLAG 448 464 0
FLAG 448 -80 0
FLAG 48 144 0
SYMBOL voltage 176 144 R90
WINDOW 0 -32 56 VBottom 2
WINDOW 3 32 56 VTop 2
WINDOW 123 0 0 Left 0
WINDOW 39 0 0 Left 0
SYMATTR InstName V1
SYMATTR Value 3.5
SYMBOL res 176 176 R0
SYMATTR InstName R1
SYMATTR Value 1k
SYMBOL res 352 128 R90
WINDOW 0 0 56 VBottom 2
WINDOW 3 32 56 VTop 2
SYMATTR InstName R2
SYMATTR Value 1k
SYMBOL res 432 224 R0
SYMATTR InstName R3
SYMATTR Value 68
SYMBOL res 432 -48 R0
SYMATTR InstName R4
SYMATTR Value 50
SYMBOL pnp 384 96 R0
SYMATTR InstName Q1
SYMATTR Value 2N2905A
SYMBOL voltage 448 336 R0
WINDOW 123 0 0 Left 0
WINDOW 39 0 0 Left 0
SYMATTR InstName V2
SYMATTR Value 12
TEXT 48 472 Left 2 !.op
