Version 4
SHEET 1 880 680
WIRE 80 -128 80 -176
WIRE 80 0 80 -48
WIRE 80 112 80 80
WIRE -176 160 -224 160
WIRE -64 160 -96 160
WIRE 80 240 80 208
WIRE 80 368 80 320
FLAG -224 160 0
FLAG 80 -176 0
FLAG 80 368 0
SYMBOL voltage -80 160 R90
WINDOW 0 -32 56 VBottom 2
WINDOW 3 32 56 VTop 2
WINDOW 123 0 0 Left 0
WINDOW 39 0 0 Left 0
SYMATTR InstName V1
SYMATTR Value 6
SYMBOL npn 16 112 R0
SYMATTR InstName Q1
SYMATTR Value 2N2222
SYMBOL res 64 -16 R0
SYMATTR InstName R1
SYMATTR Value 99
SYMBOL res 64 224 R0
SYMATTR InstName R2
SYMATTR Value 20
SYMBOL voltage 80 -32 R180
WINDOW 0 24 96 Left 2
WINDOW 3 24 16 Left 2
WINDOW 123 0 0 Left 0
WINDOW 39 0 0 Left 0
SYMATTR InstName V2
SYMATTR Value 12
SYMBOL res 32 144 R90
WINDOW 0 0 56 VBottom 2
WINDOW 3 32 56 VTop 2
SYMATTR InstName R3
SYMATTR Value 3380
TEXT -248 392 Left 2 !.op
