Version 4
SHEET 1 880 680
WIRE 448 -112 448 -160
WIRE 448 0 448 -32
WIRE 448 96 448 64
WIRE 0 144 -32 144
WIRE 112 144 80 144
WIRE 224 144 192 144
WIRE 272 144 224 144
WIRE 384 144 352 144
WIRE 224 192 224 144
WIRE 448 208 448 192
WIRE 224 320 224 272
WIRE 448 320 448 288
FLAG 224 320 0
FLAG 448 320 0
FLAG 448 -160 0
FLAG -32 144 0
FLAG 224 144 4.5
SYMBOL voltage 96 144 R90
WINDOW 0 -32 56 VBottom 2
WINDOW 3 32 56 VTop 2
WINDOW 123 0 0 Left 0
WINDOW 39 0 0 Left 0
SYMATTR InstName V1
SYMATTR Value 1
SYMBOL res 208 176 R0
SYMATTR InstName R1
SYMATTR Value 4k5
SYMBOL res 368 128 R90
WINDOW 0 0 56 VBottom 2
WINDOW 3 32 56 VTop 2
SYMATTR InstName R2
SYMATTR Value 6k9
SYMBOL res 432 -128 R0
SYMATTR InstName R4
SYMATTR Value 72
SYMBOL pnp 384 96 R0
SYMATTR InstName Q1
SYMATTR Value 2N2905A
SYMBOL voltage 448 192 R0
WINDOW 123 0 0 Left 0
WINDOW 39 0 0 Left 0
SYMATTR InstName V2
SYMATTR Value 12
SYMBOL res 208 128 R90
WINDOW 0 0 56 VBottom 2
WINDOW 3 32 56 VTop 2
SYMATTR InstName R5
SYMATTR Value 3k5
SYMBOL zener 432 0 R0
SYMATTR InstName D1
SYMATTR Value 1N750
SYMATTR Description Diode
SYMATTR Type diode
TEXT 16 352 Left 2 !.op
