Version 4
SHEET 1 948 680
WIRE 528 -192 496 -192
WIRE 656 -192 608 -192
WIRE 384 -144 384 -192
WIRE 176 -128 176 -160
WIRE 496 -48 496 -192
WIRE 544 -48 496 -48
WIRE 656 -32 656 -192
WIRE 656 -32 608 -32
WIRE 720 -32 656 -32
WIRE 848 -32 800 -32
WIRE 176 -16 176 -48
WIRE 176 -16 112 -16
WIRE 384 -16 384 -64
WIRE 544 -16 384 -16
WIRE 176 16 176 -16
WIRE 384 32 384 -16
WIRE 176 128 176 96
WIRE 384 160 384 112
WIRE 384 272 384 240
WIRE 384 400 384 352
FLAG 112 -16 0
FLAG 176 -160 Vcc+
FLAG 176 128 Vcc-
FLAG 384 400 0
FLAG 576 -64 Vcc+
FLAG 576 0 Vcc-
FLAG 384 -192 0
FLAG 848 -32 0
SYMBOL voltage 176 0 R0
WINDOW 123 0 0 Left 0
WINDOW 39 0 0 Left 0
SYMATTR InstName V1
SYMATTR Value 12
SYMBOL voltage 176 -144 R0
WINDOW 123 0 0 Left 0
WINDOW 39 0 0 Left 0
SYMATTR InstName V2
SYMATTR Value 12
SYMBOL OpAmps\\opamp2 576 -96 R0
SYMATTR InstName U1
SYMATTR Value TL061
SYMBOL voltage 384 256 R0
WINDOW 0 24 96 Left 2
WINDOW 3 24 16 Left 2
WINDOW 123 0 0 Left 0
WINDOW 39 0 0 Left 0
SYMATTR InstName V3
SYMATTR Value 24
SYMBOL res 624 -208 R90
WINDOW 0 0 56 VBottom 2
WINDOW 3 32 56 VTop 2
SYMATTR InstName R1
SYMATTR Value 470
SYMBOL res 368 144 R0
SYMATTR InstName R2
SYMATTR Value 14k
SYMBOL res 368 -160 R0
SYMATTR InstName R3
SYMATTR Value 9990
SYMBOL res 368 16 R0
SYMATTR InstName R4
SYMATTR Value 10
SYMBOL current 720 -32 R270
WINDOW 0 32 40 VTop 2
WINDOW 3 -32 40 VBottom 2
WINDOW 123 0 0 Left 0
WINDOW 39 0 0 Left 0
SYMATTR InstName I1
SYMATTR Value {Iout}
TEXT 56 360 Left 2 !.inc ./TL061.301
TEXT 592 144 Left 2 !.step param Iout 0 20m 0.5m
TEXT 56 424 Left 2 !.op
